powerfulcases/cases/matpower/case_ieee30/case_ieee30.raw
0, 100, 33, 0, 0, 60  / 28-Jan-2026 21:54:20 - MATPOWER 8.1


     1, 'Glen Lyn 132',       132, 3,    1,    1, 1,        1.06,           0, 1.06, 0.94, 1.06, 0.94
     2, 'Claytor  132',       132, 2,    1,    1, 1,       1.043,       -5.48, 1.06, 0.94, 1.06, 0.94
     3, 'Kumis    132',       132, 1,    1,    1, 1,       1.021,       -7.96, 1.06, 0.94, 1.06, 0.94
     4, 'Hancock  132',       132, 1,    1,    1, 1,       1.012,       -9.62, 1.06, 0.94, 1.06, 0.94
     5, 'Fieldale 132',       132, 2,    1,    1, 1,        1.01,      -14.37, 1.06, 0.94, 1.06, 0.94
     6, 'Roanoke  132',       132, 1,    1,    1, 1,        1.01,      -11.34, 1.06, 0.94, 1.06, 0.94
     7, 'Blaine   132',       132, 1,    1,    1, 1,       1.002,      -13.12, 1.06, 0.94, 1.06, 0.94
     8, 'Reusens  132',       132, 2,    1,    1, 1,        1.01,       -12.1, 1.06, 0.94, 1.06, 0.94
     9, 'Roanoke  1.0',         1, 1,    1,    1, 1,       1.051,      -14.38, 1.06, 0.94, 1.06, 0.94
    10, 'Roanoke   33',        33, 1,    1,    1, 1,       1.045,      -15.97, 1.06, 0.94, 1.06, 0.94
    11, 'Roanoke   11',        11, 2,    1,    1, 1,       1.082,      -14.39, 1.06, 0.94, 1.06, 0.94
    12, 'Hancock   33',        33, 1,    1,    1, 1,       1.057,      -15.24, 1.06, 0.94, 1.06, 0.94
    13, 'Hancock   11',        11, 2,    1,    1, 1,       1.071,      -15.24, 1.06, 0.94, 1.06, 0.94
    14, 'Bus 14    33',        33, 1,    1,    1, 1,       1.042,      -16.13, 1.06, 0.94, 1.06, 0.94
    15, 'Bus 15    33',        33, 1,    1,    1, 1,       1.038,      -16.22, 1.06, 0.94, 1.06, 0.94
    16, 'Bus 16    33',        33, 1,    1,    1, 1,       1.045,      -15.83, 1.06, 0.94, 1.06, 0.94
    17, 'Bus 17    33',        33, 1,    1,    1, 1,        1.04,      -16.14, 1.06, 0.94, 1.06, 0.94
    18, 'Bus 18    33',        33, 1,    1,    1, 1,       1.028,      -16.82, 1.06, 0.94, 1.06, 0.94
    19, 'Bus 19    33',        33, 1,    1,    1, 1,       1.026,         -17, 1.06, 0.94, 1.06, 0.94
    20, 'Bus 20    33',        33, 1,    1,    1, 1,        1.03,       -16.8, 1.06, 0.94, 1.06, 0.94
    21, 'Bus 21    33',        33, 1,    1,    1, 1,       1.033,      -16.42, 1.06, 0.94, 1.06, 0.94
    22, 'Bus 22    33',        33, 1,    1,    1, 1,       1.033,      -16.41, 1.06, 0.94, 1.06, 0.94
    23, 'Bus 23    33',        33, 1,    1,    1, 1,       1.027,      -16.61, 1.06, 0.94, 1.06, 0.94
    24, 'Bus 24    33',        33, 1,    1,    1, 1,       1.021,      -16.78, 1.06, 0.94, 1.06, 0.94
    25, 'Bus 25    33',        33, 1,    1,    1, 1,       1.017,      -16.35, 1.06, 0.94, 1.06, 0.94
    26, 'Bus 26    33',        33, 1,    1,    1, 1,           1,      -16.77, 1.06, 0.94, 1.06, 0.94
    27, 'Cloverdle 33',        33, 1,    1,    1, 1,       1.023,      -15.82, 1.06, 0.94, 1.06, 0.94
    28, 'Cloverdle132',       132, 1,    1,    1, 1,       1.007,      -11.97, 1.06, 0.94, 1.06, 0.94
    29, 'Bus 29    33',        33, 1,    1,    1, 1,       1.003,      -17.06, 1.06, 0.94, 1.06, 0.94
    30, 'Bus 30    33',        33, 1,    1,    1, 1,       0.992,      -17.94, 1.06, 0.94, 1.06, 0.94
0 / END OF BUS DATA, BEGIN LOAD DATA
     2,  1, 1,    1,    1,      21.7,      12.7, 0, 0, 0, 0, 1, 1, 0
     3,  1, 1,    1,    1,       2.4,       1.2, 0, 0, 0, 0, 1, 1, 0
     4,  1, 1,    1,    1,       7.6,       1.6, 0, 0, 0, 0, 1, 1, 0
     5,  1, 1,    1,    1,      94.2,        19, 0, 0, 0, 0, 1, 1, 0
     7,  1, 1,    1,    1,      22.8,      10.9, 0, 0, 0, 0, 1, 1, 0
     8,  1, 1,    1,    1,        30,        30, 0, 0, 0, 0, 1, 1, 0
    10,  1, 1,    1,    1,       5.8,         2, 0, 0, 0, 0, 1, 1, 0
    12,  1, 1,    1,    1,      11.2,       7.5, 0, 0, 0, 0, 1, 1, 0
    14,  1, 1,    1,    1,       6.2,       1.6, 0, 0, 0, 0, 1, 1, 0
    15,  1, 1,    1,    1,       8.2,       2.5, 0, 0, 0, 0, 1, 1, 0
    16,  1, 1,    1,    1,       3.5,       1.8, 0, 0, 0, 0, 1, 1, 0
    17,  1, 1,    1,    1,         9,       5.8, 0, 0, 0, 0, 1, 1, 0
    18,  1, 1,    1,    1,       3.2,       0.9, 0, 0, 0, 0, 1, 1, 0
    19,  1, 1,    1,    1,       9.5,       3.4, 0, 0, 0, 0, 1, 1, 0
    20,  1, 1,    1,    1,       2.2,       0.7, 0, 0, 0, 0, 1, 1, 0
    21,  1, 1,    1,    1,      17.5,      11.2, 0, 0, 0, 0, 1, 1, 0
    23,  1, 1,    1,    1,       3.2,       1.6, 0, 0, 0, 0, 1, 1, 0
    24,  1, 1,    1,    1,       8.7,       6.7, 0, 0, 0, 0, 1, 1, 0
    26,  1, 1,    1,    1,       3.5,       2.3, 0, 0, 0, 0, 1, 1, 0
    29,  1, 1,    1,    1,       2.4,       0.9, 0, 0, 0, 0, 1, 1, 0
    30,  1, 1,    1,    1,      10.6,       1.9, 0, 0, 0, 0, 1, 1, 0
0 / END OF LOAD DATA, BEGIN FIXED SHUNT DATA
    10, 1, 1,       0,      19
    24, 1, 1,       0,     4.3
0 / END OF FIXED SHUNT DATA, BEGIN GENERATOR DATA
     1,  1,     260.2,     -16.1,        10,         0,     1.06, 0,     100, 0, 1, 0, 0, 1, 1, 100,     360.2,         0, 1, 1, 0, 1, 0, 1, 0, 1, 0, 1
     2,  1,        40,        50,        50,       -40,    1.045, 0,     100, 0, 1, 0, 0, 1, 1, 100,       140,         0, 1, 1, 0, 1, 0, 1, 0, 1, 0, 1
     5,  1,         0,        37,        40,       -40,     1.01, 0,     100, 0, 1, 0, 0, 1, 1, 100,       100,         0, 1, 1, 0, 1, 0, 1, 0, 1, 0, 1
     8,  1,         0,      37.3,        40,       -10,     1.01, 0,     100, 0, 1, 0, 0, 1, 1, 100,       100,         0, 1, 1, 0, 1, 0, 1, 0, 1, 0, 1
    11,  1,         0,      16.2,        24,        -6,    1.082, 0,     100, 0, 1, 0, 0, 1, 1, 100,       100,         0, 1, 1, 0, 1, 0, 1, 0, 1, 0, 1
    13,  1,         0,      10.6,        24,        -6,    1.071, 0,     100, 0, 1, 0, 0, 1, 1, 100,       100,         0, 1, 1, 0, 1, 0, 1, 0, 1, 0, 1
0 / END OF GENERATOR DATA, BEGIN BRANCH DATA
     1,      2, 1,   0.0192,   0.0575,   0.0528,       0,       0,       0, 0, 0, 0, 0, 1, 1, 0, 1, 1, 0, 1, 0, 1, 0, 1
     1,      3, 1,   0.0452,   0.1652,   0.0408,       0,       0,       0, 0, 0, 0, 0, 1, 1, 0, 1, 1, 0, 1, 0, 1, 0, 1
     2,      4, 1,    0.057,   0.1737,   0.0368,       0,       0,       0, 0, 0, 0, 0, 1, 1, 0, 1, 1, 0, 1, 0, 1, 0, 1
     3,      4, 1,   0.0132,   0.0379,   0.0084,       0,       0,       0, 0, 0, 0, 0, 1, 1, 0, 1, 1, 0, 1, 0, 1, 0, 1
     2,      5, 1,   0.0472,   0.1983,   0.0418,       0,       0,       0, 0, 0, 0, 0, 1, 1, 0, 1, 1, 0, 1, 0, 1, 0, 1
     2,      6, 1,   0.0581,   0.1763,   0.0374,       0,       0,       0, 0, 0, 0, 0, 1, 1, 0, 1, 1, 0, 1, 0, 1, 0, 1
     4,      6, 1,   0.0119,   0.0414,    0.009,       0,       0,       0, 0, 0, 0, 0, 1, 1, 0, 1, 1, 0, 1, 0, 1, 0, 1
     5,      7, 1,    0.046,    0.116,   0.0204,       0,       0,       0, 0, 0, 0, 0, 1, 1, 0, 1, 1, 0, 1, 0, 1, 0, 1
     6,      7, 1,   0.0267,    0.082,    0.017,       0,       0,       0, 0, 0, 0, 0, 1, 1, 0, 1, 1, 0, 1, 0, 1, 0, 1
     6,      8, 1,    0.012,    0.042,    0.009,       0,       0,       0, 0, 0, 0, 0, 1, 1, 0, 1, 1, 0, 1, 0, 1, 0, 1
    12,     14, 1,   0.1231,   0.2559,        0,       0,       0,       0, 0, 0, 0, 0, 1, 1, 0, 1, 1, 0, 1, 0, 1, 0, 1
    12,     15, 1,   0.0662,   0.1304,        0,       0,       0,       0, 0, 0, 0, 0, 1, 1, 0, 1, 1, 0, 1, 0, 1, 0, 1
    12,     16, 1,   0.0945,   0.1987,        0,       0,       0,       0, 0, 0, 0, 0, 1, 1, 0, 1, 1, 0, 1, 0, 1, 0, 1
    14,     15, 1,    0.221,   0.1997,        0,       0,       0,       0, 0, 0, 0, 0, 1, 1, 0, 1, 1, 0, 1, 0, 1, 0, 1
    16,     17, 1,   0.0524,   0.1923,        0,       0,       0,       0, 0, 0, 0, 0, 1, 1, 0, 1, 1, 0, 1, 0, 1, 0, 1
    15,     18, 1,   0.1073,   0.2185,        0,       0,       0,       0, 0, 0, 0, 0, 1, 1, 0, 1, 1, 0, 1, 0, 1, 0, 1
    18,     19, 1,   0.0639,   0.1292,        0,       0,       0,       0, 0, 0, 0, 0, 1, 1, 0, 1, 1, 0, 1, 0, 1, 0, 1
    19,     20, 1,    0.034,    0.068,        0,       0,       0,       0, 0, 0, 0, 0, 1, 1, 0, 1, 1, 0, 1, 0, 1, 0, 1
    10,     20, 1,   0.0936,    0.209,        0,       0,       0,       0, 0, 0, 0, 0, 1, 1, 0, 1, 1, 0, 1, 0, 1, 0, 1
    10,     17, 1,   0.0324,   0.0845,        0,       0,       0,       0, 0, 0, 0, 0, 1, 1, 0, 1, 1, 0, 1, 0, 1, 0, 1
    10,     21, 1,   0.0348,   0.0749,        0,       0,       0,       0, 0, 0, 0, 0, 1, 1, 0, 1, 1, 0, 1, 0, 1, 0, 1
    10,     22, 1,   0.0727,   0.1499,        0,       0,       0,       0, 0, 0, 0, 0, 1, 1, 0, 1, 1, 0, 1, 0, 1, 0, 1
    21,     22, 1,   0.0116,   0.0236,        0,       0,       0,       0, 0, 0, 0, 0, 1, 1, 0, 1, 1, 0, 1, 0, 1, 0, 1
    15,     23, 1,      0.1,    0.202,        0,       0,       0,       0, 0, 0, 0, 0, 1, 1, 0, 1, 1, 0, 1, 0, 1, 0, 1
    22,     24, 1,    0.115,    0.179,        0,       0,       0,       0, 0, 0, 0, 0, 1, 1, 0, 1, 1, 0, 1, 0, 1, 0, 1
    23,     24, 1,    0.132,     0.27,        0,       0,       0,       0, 0, 0, 0, 0, 1, 1, 0, 1, 1, 0, 1, 0, 1, 0, 1
    24,     25, 1,   0.1885,   0.3292,        0,       0,       0,       0, 0, 0, 0, 0, 1, 1, 0, 1, 1, 0, 1, 0, 1, 0, 1
    25,     26, 1,   0.2544,     0.38,        0,       0,       0,       0, 0, 0, 0, 0, 1, 1, 0, 1, 1, 0, 1, 0, 1, 0, 1
    25,     27, 1,   0.1093,   0.2087,        0,       0,       0,       0, 0, 0, 0, 0, 1, 1, 0, 1, 1, 0, 1, 0, 1, 0, 1
    27,     29, 1,   0.2198,   0.4153,        0,       0,       0,       0, 0, 0, 0, 0, 1, 1, 0, 1, 1, 0, 1, 0, 1, 0, 1
    27,     30, 1,   0.3202,   0.6027,        0,       0,       0,       0, 0, 0, 0, 0, 1, 1, 0, 1, 1, 0, 1, 0, 1, 0, 1
    29,     30, 1,   0.2399,   0.4533,        0,       0,       0,       0, 0, 0, 0, 0, 1, 1, 0, 1, 1, 0, 1, 0, 1, 0, 1
     8,     28, 1,   0.0636,      0.2,   0.0428,       0,       0,       0, 0, 0, 0, 0, 1, 1, 0, 1, 1, 0, 1, 0, 1, 0, 1
     6,     28, 1,   0.0169,   0.0599,    0.013,       0,       0,       0, 0, 0, 0, 0, 1, 1, 0, 1, 1, 0, 1, 0, 1, 0, 1
0 / END OF BRANCH DATA, BEGIN TRANSFORMER DATA
     6,      9, 0, 1, 1, 1, 1, 0, 0, 2, '            ', 1, 1, 1, 0, 1, 0, 1, 0, 1, '            '
0, 0.208, 100
0.978, 0,     0,       0,       0,       0, 0, 0, 1.1, 0.9, 1.1, 0.9, 33, 0, 0, 0, 0
    1, 0
     6,     10, 0, 1, 1, 1, 1, 0, 0, 2, '            ', 1, 1, 1, 0, 1, 0, 1, 0, 1, '            '
0, 0.556, 100
0.969, 0,     0,       0,       0,       0, 0, 0, 1.1, 0.9, 1.1, 0.9, 33, 0, 0, 0, 0
    1, 0
     9,     11, 0, 1, 1, 1, 1, 0, 0, 2, '            ', 1, 1, 1, 0, 1, 0, 1, 0, 1, '            '
0, 0.208, 100
    1, 0,     0,       0,       0,       0, 0, 0, 1.1, 0.9, 1.1, 0.9, 33, 0, 0, 0, 0
    1, 0
     9,     10, 0, 1, 1, 1, 1, 0, 0, 2, '            ', 1, 1, 1, 0, 1, 0, 1, 0, 1, '            '
0, 0.11, 100
    1, 0,     0,       0,       0,       0, 0, 0, 1.1, 0.9, 1.1, 0.9, 33, 0, 0, 0, 0
    1, 0
     4,     12, 0, 1, 1, 1, 1, 0, 0, 2, '            ', 1, 1, 1, 0, 1, 0, 1, 0, 1, '            '
0, 0.256, 100
0.932, 0,     0,       0,       0,       0, 0, 0, 1.1, 0.9, 1.1, 0.9, 33, 0, 0, 0, 0
    1, 0
    12,     13, 0, 1, 1, 1, 1, 0, 0, 2, '            ', 1, 1, 1, 0, 1, 0, 1, 0, 1, '            '
0, 0.14, 100
    1, 0,     0,       0,       0,       0, 0, 0, 1.1, 0.9, 1.1, 0.9, 33, 0, 0, 0, 0
    1, 0
    28,     27, 0, 1, 1, 1, 1, 0, 0, 2, '            ', 1, 1, 1, 0, 1, 0, 1, 0, 1, '            '
0, 0.396, 100
0.968, 0,     0,       0,       0,       0, 0, 0, 1.1, 0.9, 1.1, 0.9, 33, 0, 0, 0, 0
    1, 0
0 / END OF TRANSFORMER DATA, BEGIN AREA DATA
0 / END OF AREA DATA, BEGIN TWO-TERMINAL DC DATA
0 / END OF TWO-TERMINAL DC DATA, BEGIN VOLTAGE SOURCE CONVERTER DATA
0 / END OF VOLTAGE SOURCE CONVERTER DATA, BEGIN IMPEDANCE CORRECTION DATA
0 / END OF IMPEDANCE CORRECTION DATA, BEGIN MULTI-TERMINAL DC DATA
0 / END OF MULTI-TERMINAL DC DATA, BEGIN MULTI-SECTION LINE DATA
0 / END OF MULTI-SECTION LINE DATA, BEGIN ZONE DATA
0 / END OF ZONE DATA, BEGIN INTER-AREA TRANSFER DATA
0 / END OF INTER-AREA TRANSFER DATA, BEGIN OWNER DATA
0 / END OF OWNER DATA, BEGIN FACTS CONTROL DEVICE DATA
0 / END OF FACTS CONTROL DEVICE DATA, BEGIN SWITCHED SHUNT DATA
0 / END OF SWITCHED SHUNT DATA, BEGIN GNE DEVICE DATA
0 / END OF GNE DEVICE DATA, BEGIN INDUCTION MACHINE DATA
0 / END OF INDUCTION MACHINE DATA
Q
